[root]
type=Root
children=system
eventq_index=0
full_system=true
sim_quantum=0
time_sync_enable=false
time_sync_period=100000000000
time_sync_spin_threshold=100000000

[system]
type=EtherSwitch
children=portlink00 portlink01 portlink02 portlink03 portlink04 portlink05 portlink06 portlink07 portlink08 portlink09 portlink10 portlink11 portlink12 portlink13 portlink14 portlink15
delay=0
delay_var=0
dump=Null
eventq_index=0
fabric_speed=800.000000
output_buffer_size=1048576
time_to_live=10000000000
interface=system.portlink00.int0 system.portlink01.int0 system.portlink02.int0 system.portlink03.int0 system.portlink04.int0 system.portlink05.int0 system.portlink06.int0 system.portlink07.int0 system.portlink08.int0 system.portlink09.int0 system.portlink10.int0 system.portlink11.int0 system.portlink12.int0 system.portlink13.int0 system.portlink14.int0 system.portlink15.int0

[system.portlink00]
type=DistEtherLink
delay=500000
delay_var=0
dist_rank=0
dist_size=16
dist_sync_on_pseudo_op=false
dump=Null
eventq_index=0
is_switch=true
num_nodes=16
server_name=127.0.0.1
server_port=2200
speed=800.000000
sync_repeat=500000
sync_start=0
int0=system.interface[0]

[system.portlink01]
type=DistEtherLink
delay=500000
delay_var=0
dist_rank=0
dist_size=16
dist_sync_on_pseudo_op=false
dump=Null
eventq_index=0
is_switch=true
num_nodes=16
server_name=127.0.0.1
server_port=2200
speed=800.000000
sync_repeat=500000
sync_start=0
int0=system.interface[1]

[system.portlink02]
type=DistEtherLink
delay=500000
delay_var=0
dist_rank=0
dist_size=16
dist_sync_on_pseudo_op=false
dump=Null
eventq_index=0
is_switch=true
num_nodes=16
server_name=127.0.0.1
server_port=2200
speed=800.000000
sync_repeat=500000
sync_start=0
int0=system.interface[2]

[system.portlink03]
type=DistEtherLink
delay=500000
delay_var=0
dist_rank=0
dist_size=16
dist_sync_on_pseudo_op=false
dump=Null
eventq_index=0
is_switch=true
num_nodes=16
server_name=127.0.0.1
server_port=2200
speed=800.000000
sync_repeat=500000
sync_start=0
int0=system.interface[3]

[system.portlink04]
type=DistEtherLink
delay=500000
delay_var=0
dist_rank=0
dist_size=16
dist_sync_on_pseudo_op=false
dump=Null
eventq_index=0
is_switch=true
num_nodes=16
server_name=127.0.0.1
server_port=2200
speed=800.000000
sync_repeat=500000
sync_start=0
int0=system.interface[4]

[system.portlink05]
type=DistEtherLink
delay=500000
delay_var=0
dist_rank=0
dist_size=16
dist_sync_on_pseudo_op=false
dump=Null
eventq_index=0
is_switch=true
num_nodes=16
server_name=127.0.0.1
server_port=2200
speed=800.000000
sync_repeat=500000
sync_start=0
int0=system.interface[5]

[system.portlink06]
type=DistEtherLink
delay=500000
delay_var=0
dist_rank=0
dist_size=16
dist_sync_on_pseudo_op=false
dump=Null
eventq_index=0
is_switch=true
num_nodes=16
server_name=127.0.0.1
server_port=2200
speed=800.000000
sync_repeat=500000
sync_start=0
int0=system.interface[6]

[system.portlink07]
type=DistEtherLink
delay=500000
delay_var=0
dist_rank=0
dist_size=16
dist_sync_on_pseudo_op=false
dump=Null
eventq_index=0
is_switch=true
num_nodes=16
server_name=127.0.0.1
server_port=2200
speed=800.000000
sync_repeat=500000
sync_start=0
int0=system.interface[7]

[system.portlink08]
type=DistEtherLink
delay=500000
delay_var=0
dist_rank=0
dist_size=16
dist_sync_on_pseudo_op=false
dump=Null
eventq_index=0
is_switch=true
num_nodes=16
server_name=127.0.0.1
server_port=2200
speed=800.000000
sync_repeat=500000
sync_start=0
int0=system.interface[8]

[system.portlink09]
type=DistEtherLink
delay=500000
delay_var=0
dist_rank=0
dist_size=16
dist_sync_on_pseudo_op=false
dump=Null
eventq_index=0
is_switch=true
num_nodes=16
server_name=127.0.0.1
server_port=2200
speed=800.000000
sync_repeat=500000
sync_start=0
int0=system.interface[9]

[system.portlink10]
type=DistEtherLink
delay=500000
delay_var=0
dist_rank=0
dist_size=16
dist_sync_on_pseudo_op=false
dump=Null
eventq_index=0
is_switch=true
num_nodes=16
server_name=127.0.0.1
server_port=2200
speed=800.000000
sync_repeat=500000
sync_start=0
int0=system.interface[10]

[system.portlink11]
type=DistEtherLink
delay=500000
delay_var=0
dist_rank=0
dist_size=16
dist_sync_on_pseudo_op=false
dump=Null
eventq_index=0
is_switch=true
num_nodes=16
server_name=127.0.0.1
server_port=2200
speed=800.000000
sync_repeat=500000
sync_start=0
int0=system.interface[11]

[system.portlink12]
type=DistEtherLink
delay=500000
delay_var=0
dist_rank=0
dist_size=16
dist_sync_on_pseudo_op=false
dump=Null
eventq_index=0
is_switch=true
num_nodes=16
server_name=127.0.0.1
server_port=2200
speed=800.000000
sync_repeat=500000
sync_start=0
int0=system.interface[12]

[system.portlink13]
type=DistEtherLink
delay=500000
delay_var=0
dist_rank=0
dist_size=16
dist_sync_on_pseudo_op=false
dump=Null
eventq_index=0
is_switch=true
num_nodes=16
server_name=127.0.0.1
server_port=2200
speed=800.000000
sync_repeat=500000
sync_start=0
int0=system.interface[13]

[system.portlink14]
type=DistEtherLink
delay=500000
delay_var=0
dist_rank=0
dist_size=16
dist_sync_on_pseudo_op=false
dump=Null
eventq_index=0
is_switch=true
num_nodes=16
server_name=127.0.0.1
server_port=2200
speed=800.000000
sync_repeat=500000
sync_start=0
int0=system.interface[14]

[system.portlink15]
type=DistEtherLink
delay=500000
delay_var=0
dist_rank=0
dist_size=16
dist_sync_on_pseudo_op=false
dump=Null
eventq_index=0
is_switch=true
num_nodes=16
server_name=127.0.0.1
server_port=2200
speed=800.000000
sync_repeat=500000
sync_start=0
int0=system.interface[15]

