[root]
type=Root
children=system
eventq_index=0
full_system=true
sim_quantum=0
time_sync_enable=false
time_sync_period=100000000000
time_sync_spin_threshold=100000000

[system]
type=EtherSwitch
children=portlink0 portlink1 portlink2 portlink3 portlink4 portlink5 portlink6 portlink7
delay=0
delay_var=0
dump=Null
eventq_index=0
fabric_speed=800.000000
output_buffer_size=1048576
time_to_live=10000000000
interface=system.portlink0.int0 system.portlink1.int0 system.portlink2.int0 system.portlink3.int0 system.portlink4.int0 system.portlink5.int0 system.portlink6.int0 system.portlink7.int0

[system.portlink0]
type=DistEtherLink
delay=500000
delay_var=0
dist_rank=0
dist_size=8
dist_sync_on_pseudo_op=false
dump=Null
eventq_index=0
is_switch=true
num_nodes=8
server_name=127.0.0.1
server_port=2200
speed=800.000000
sync_repeat=500000
sync_start=0
int0=system.interface[0]

[system.portlink1]
type=DistEtherLink
delay=500000
delay_var=0
dist_rank=0
dist_size=8
dist_sync_on_pseudo_op=false
dump=Null
eventq_index=0
is_switch=true
num_nodes=8
server_name=127.0.0.1
server_port=2200
speed=800.000000
sync_repeat=500000
sync_start=0
int0=system.interface[1]

[system.portlink2]
type=DistEtherLink
delay=500000
delay_var=0
dist_rank=0
dist_size=8
dist_sync_on_pseudo_op=false
dump=Null
eventq_index=0
is_switch=true
num_nodes=8
server_name=127.0.0.1
server_port=2200
speed=800.000000
sync_repeat=500000
sync_start=0
int0=system.interface[2]

[system.portlink3]
type=DistEtherLink
delay=500000
delay_var=0
dist_rank=0
dist_size=8
dist_sync_on_pseudo_op=false
dump=Null
eventq_index=0
is_switch=true
num_nodes=8
server_name=127.0.0.1
server_port=2200
speed=800.000000
sync_repeat=500000
sync_start=0
int0=system.interface[3]

[system.portlink4]
type=DistEtherLink
delay=500000
delay_var=0
dist_rank=0
dist_size=8
dist_sync_on_pseudo_op=false
dump=Null
eventq_index=0
is_switch=true
num_nodes=8
server_name=127.0.0.1
server_port=2200
speed=800.000000
sync_repeat=500000
sync_start=0
int0=system.interface[4]

[system.portlink5]
type=DistEtherLink
delay=500000
delay_var=0
dist_rank=0
dist_size=8
dist_sync_on_pseudo_op=false
dump=Null
eventq_index=0
is_switch=true
num_nodes=8
server_name=127.0.0.1
server_port=2200
speed=800.000000
sync_repeat=500000
sync_start=0
int0=system.interface[5]

[system.portlink6]
type=DistEtherLink
delay=500000
delay_var=0
dist_rank=0
dist_size=8
dist_sync_on_pseudo_op=false
dump=Null
eventq_index=0
is_switch=true
num_nodes=8
server_name=127.0.0.1
server_port=2200
speed=800.000000
sync_repeat=500000
sync_start=0
int0=system.interface[6]

[system.portlink7]
type=DistEtherLink
delay=500000
delay_var=0
dist_rank=0
dist_size=8
dist_sync_on_pseudo_op=false
dump=Null
eventq_index=0
is_switch=true
num_nodes=8
server_name=127.0.0.1
server_port=2200
speed=800.000000
sync_repeat=500000
sync_start=0
int0=system.interface[7]

