[etherlink]
type=SimbricksEtherLink
eth_delay=500000
eventq_index=0
poll_interval=100000000
shm_path=/tmp/hejing-work/run-32/shm.27
sync=true
sync_mode=0
sync_tx_interval=500000
uxsocket_path=/tmp/hejing-work/run-32/eth.27
int0=testsys.pc.ethernet.interface

[root]
type=Root
children=etherlink testsys
eventq_index=0
full_system=true
sim_quantum=0
time_sync_enable=false
time_sync_period=100000000000
time_sync_spin_threshold=100000000

[testsys]
type=System
children=apicbridge bridge clk_domain cpu cpu_clk_domain cpu_voltage_domain dvfs_handler iobus iocache l2 l3 mem_ctrls membus pc tol2bus tol3bus voltage_domain workload
byte_order=little
cache_line_size=64
eventq_index=0
exit_on_work_items=false
init_param=0
kvm_vm=Null
m5ops_base=4294901760
mem_mode=timing
mem_ranges=0:536870912
memories=testsys.mem_ctrls.dram
mmap_using_noreserve=false
multi_thread=false
num_work_ids=16
readfile=
redirect_paths=
shadow_rom_ranges=
shared_backstore=
symbolfile=
thermal_components=
thermal_model=Null
work_begin_ckpt_count=0
work_begin_cpu_id_exit=-1
work_begin_exit_count=0
work_cpus_ckpt_count=0
work_end_ckpt_count=0
work_end_exit_count=0
work_item_id=-1
workload=testsys.workload
system_port=testsys.membus.cpu_side_ports[1]

[testsys.apicbridge]
type=Bridge
children=power_state
clk_domain=testsys.clk_domain
delay=50000
eventq_index=0
power_model=
power_state=testsys.apicbridge.power_state
ranges=11529215046068469760:11529215046068473855
req_size=16
resp_size=16
cpu_side_port=testsys.iobus.mem_side_ports[0]
mem_side_port=testsys.membus.cpu_side_ports[0]

[testsys.apicbridge.power_state]
type=PowerState
clk_gate_bins=20
clk_gate_max=1000000000000
clk_gate_min=1000
default_state=UNDEFINED
eventq_index=0
leaders=
possible_states=

[testsys.bridge]
type=Bridge
children=power_state
clk_domain=testsys.clk_domain
delay=50000
eventq_index=0
power_model=
power_state=testsys.bridge.power_state
ranges=3221225472:4294901760 9223372036854775808:11529215046068469759 13835058055282163712:18446744073709551615
req_size=16
resp_size=16
cpu_side_port=testsys.membus.mem_side_ports[0]
mem_side_port=testsys.iobus.cpu_side_ports[0]

[testsys.bridge.power_state]
type=PowerState
clk_gate_bins=20
clk_gate_max=1000000000000
clk_gate_min=1000
default_state=UNDEFINED
eventq_index=0
leaders=
possible_states=

[testsys.clk_domain]
type=SrcClockDomain
clock=1000
domain_id=-1
eventq_index=0
init_perf_level=0
voltage_domain=testsys.voltage_domain

[testsys.cpu]
type=TimingSimpleCPU
children=dcache dtb_walker_cache icache interrupts isa itb_walker_cache mmu power_state tracer
branchPred=Null
checker=Null
clk_domain=testsys.cpu_clk_domain
cpu_id=0
do_checkpoint_insts=true
do_statistics_insts=true
eventq_index=0
function_trace=false
function_trace_start=0
interrupts=testsys.cpu.interrupts
isa=testsys.cpu.isa
max_insts_all_threads=0
max_insts_any_thread=0
mmu=testsys.cpu.mmu
numThreads=1
power_gating_on_idle=false
power_model=
power_state=testsys.cpu.power_state
progress_interval=0
pwr_gating_latency=300
simpoint_start_insts=
socket_id=0
switched_out=false
syscallRetryLatency=10000
system=testsys
tracer=testsys.cpu.tracer
workload=
dcache_port=testsys.cpu.dcache.cpu_side
icache_port=testsys.cpu.icache.cpu_side

[testsys.cpu.dcache]
type=Cache
children=power_state replacement_policy tags
addr_ranges=0:18446744073709551615
assoc=8
clk_domain=testsys.cpu_clk_domain
clusivity=mostly_incl
compressor=Null
data_latency=0
ddio_disabled=false
ddio_enabled=false
ddio_way_part=-1
demand_mshr_reserve=1
eventq_index=0
is_iocache=false
is_llc=false
is_read_only=false
max_miss_count=0
move_contractions=true
mshrs=4
power_model=
power_state=testsys.cpu.dcache.power_state
prefetch_on_access=false
prefetch_on_pf_hit=false
prefetcher=Null
replace_expansions=true
replacement_policy=testsys.cpu.dcache.replacement_policy
response_latency=0
sequential_access=false
size=32768
system=testsys
tag_latency=0
tags=testsys.cpu.dcache.tags
tgts_per_mshr=20
warmup_percentage=0
write_allocator=Null
write_buffers=8
writeback_clean=false
cpu_side=testsys.cpu.dcache_port
mem_side=testsys.tol2bus.cpu_side_ports[1]

[testsys.cpu.dcache.power_state]
type=PowerState
clk_gate_bins=20
clk_gate_max=1000000000000
clk_gate_min=1000
default_state=UNDEFINED
eventq_index=0
leaders=
possible_states=

[testsys.cpu.dcache.replacement_policy]
type=LRURP
eventq_index=0

[testsys.cpu.dcache.tags]
type=BaseSetAssoc
children=indexing_policy power_state
assoc=8
block_size=64
clk_domain=testsys.cpu_clk_domain
entry_size=64
eventq_index=0
indexing_policy=testsys.cpu.dcache.tags.indexing_policy
power_model=
power_state=testsys.cpu.dcache.tags.power_state
replacement_policy=testsys.cpu.dcache.replacement_policy
sequential_access=false
size=32768
system=testsys
tag_latency=0
warmup_percentage=0

[testsys.cpu.dcache.tags.indexing_policy]
type=SetAssociative
assoc=8
entry_size=64
eventq_index=0
size=32768

[testsys.cpu.dcache.tags.power_state]
type=PowerState
clk_gate_bins=20
clk_gate_max=1000000000000
clk_gate_min=1000
default_state=UNDEFINED
eventq_index=0
leaders=
possible_states=

[testsys.cpu.dtb_walker_cache]
type=Cache
children=power_state replacement_policy tags
addr_ranges=0:18446744073709551615
assoc=2
clk_domain=testsys.cpu_clk_domain
clusivity=mostly_incl
compressor=Null
data_latency=2
ddio_disabled=false
ddio_enabled=false
ddio_way_part=-1
demand_mshr_reserve=1
eventq_index=0
is_iocache=false
is_llc=false
is_read_only=false
max_miss_count=0
move_contractions=true
mshrs=10
power_model=
power_state=testsys.cpu.dtb_walker_cache.power_state
prefetch_on_access=false
prefetch_on_pf_hit=false
prefetcher=Null
replace_expansions=true
replacement_policy=testsys.cpu.dtb_walker_cache.replacement_policy
response_latency=2
sequential_access=false
size=1024
system=testsys
tag_latency=2
tags=testsys.cpu.dtb_walker_cache.tags
tgts_per_mshr=12
warmup_percentage=0
write_allocator=Null
write_buffers=8
writeback_clean=false
cpu_side=testsys.cpu.mmu.dtb.walker.port
mem_side=testsys.tol2bus.cpu_side_ports[3]

[testsys.cpu.dtb_walker_cache.power_state]
type=PowerState
clk_gate_bins=20
clk_gate_max=1000000000000
clk_gate_min=1000
default_state=UNDEFINED
eventq_index=0
leaders=
possible_states=

[testsys.cpu.dtb_walker_cache.replacement_policy]
type=LRURP
eventq_index=0

[testsys.cpu.dtb_walker_cache.tags]
type=BaseSetAssoc
children=indexing_policy power_state
assoc=2
block_size=64
clk_domain=testsys.cpu_clk_domain
entry_size=64
eventq_index=0
indexing_policy=testsys.cpu.dtb_walker_cache.tags.indexing_policy
power_model=
power_state=testsys.cpu.dtb_walker_cache.tags.power_state
replacement_policy=testsys.cpu.dtb_walker_cache.replacement_policy
sequential_access=false
size=1024
system=testsys
tag_latency=2
warmup_percentage=0

[testsys.cpu.dtb_walker_cache.tags.indexing_policy]
type=SetAssociative
assoc=2
entry_size=64
eventq_index=0
size=1024

[testsys.cpu.dtb_walker_cache.tags.power_state]
type=PowerState
clk_gate_bins=20
clk_gate_max=1000000000000
clk_gate_min=1000
default_state=UNDEFINED
eventq_index=0
leaders=
possible_states=

[testsys.cpu.icache]
type=Cache
children=power_state replacement_policy tags
addr_ranges=0:18446744073709551615
assoc=8
clk_domain=testsys.cpu_clk_domain
clusivity=mostly_incl
compressor=Null
data_latency=0
ddio_disabled=false
ddio_enabled=false
ddio_way_part=-1
demand_mshr_reserve=1
eventq_index=0
is_iocache=false
is_llc=false
is_read_only=true
max_miss_count=0
move_contractions=true
mshrs=4
power_model=
power_state=testsys.cpu.icache.power_state
prefetch_on_access=false
prefetch_on_pf_hit=false
prefetcher=Null
replace_expansions=true
replacement_policy=testsys.cpu.icache.replacement_policy
response_latency=0
sequential_access=false
size=32768
system=testsys
tag_latency=0
tags=testsys.cpu.icache.tags
tgts_per_mshr=20
warmup_percentage=0
write_allocator=Null
write_buffers=8
writeback_clean=true
cpu_side=testsys.cpu.icache_port
mem_side=testsys.tol2bus.cpu_side_ports[0]

[testsys.cpu.icache.power_state]
type=PowerState
clk_gate_bins=20
clk_gate_max=1000000000000
clk_gate_min=1000
default_state=UNDEFINED
eventq_index=0
leaders=
possible_states=

[testsys.cpu.icache.replacement_policy]
type=LRURP
eventq_index=0

[testsys.cpu.icache.tags]
type=BaseSetAssoc
children=indexing_policy power_state
assoc=8
block_size=64
clk_domain=testsys.cpu_clk_domain
entry_size=64
eventq_index=0
indexing_policy=testsys.cpu.icache.tags.indexing_policy
power_model=
power_state=testsys.cpu.icache.tags.power_state
replacement_policy=testsys.cpu.icache.replacement_policy
sequential_access=false
size=32768
system=testsys
tag_latency=0
warmup_percentage=0

[testsys.cpu.icache.tags.indexing_policy]
type=SetAssociative
assoc=8
entry_size=64
eventq_index=0
size=32768

[testsys.cpu.icache.tags.power_state]
type=PowerState
clk_gate_bins=20
clk_gate_max=1000000000000
clk_gate_min=1000
default_state=UNDEFINED
eventq_index=0
leaders=
possible_states=

[testsys.cpu.interrupts]
type=X86LocalApic
children=clk_domain
clk_domain=testsys.cpu.interrupts.clk_domain
eventq_index=0
int_latency=1000
pio_latency=100000
system=testsys
int_requestor=testsys.membus.cpu_side_ports[3]
int_responder=testsys.membus.mem_side_ports[2]
pio=testsys.membus.mem_side_ports[1]

[testsys.cpu.interrupts.clk_domain]
type=DerivedClockDomain
clk_divider=16
clk_domain=testsys.cpu_clk_domain
eventq_index=0

[testsys.cpu.isa]
type=X86ISA
eventq_index=0
vendor_string=M5 Simulator

[testsys.cpu.itb_walker_cache]
type=Cache
children=power_state replacement_policy tags
addr_ranges=0:18446744073709551615
assoc=2
clk_domain=testsys.cpu_clk_domain
clusivity=mostly_incl
compressor=Null
data_latency=2
ddio_disabled=false
ddio_enabled=false
ddio_way_part=-1
demand_mshr_reserve=1
eventq_index=0
is_iocache=false
is_llc=false
is_read_only=false
max_miss_count=0
move_contractions=true
mshrs=10
power_model=
power_state=testsys.cpu.itb_walker_cache.power_state
prefetch_on_access=false
prefetch_on_pf_hit=false
prefetcher=Null
replace_expansions=true
replacement_policy=testsys.cpu.itb_walker_cache.replacement_policy
response_latency=2
sequential_access=false
size=1024
system=testsys
tag_latency=2
tags=testsys.cpu.itb_walker_cache.tags
tgts_per_mshr=12
warmup_percentage=0
write_allocator=Null
write_buffers=8
writeback_clean=false
cpu_side=testsys.cpu.mmu.itb.walker.port
mem_side=testsys.tol2bus.cpu_side_ports[2]

[testsys.cpu.itb_walker_cache.power_state]
type=PowerState
clk_gate_bins=20
clk_gate_max=1000000000000
clk_gate_min=1000
default_state=UNDEFINED
eventq_index=0
leaders=
possible_states=

[testsys.cpu.itb_walker_cache.replacement_policy]
type=LRURP
eventq_index=0

[testsys.cpu.itb_walker_cache.tags]
type=BaseSetAssoc
children=indexing_policy power_state
assoc=2
block_size=64
clk_domain=testsys.cpu_clk_domain
entry_size=64
eventq_index=0
indexing_policy=testsys.cpu.itb_walker_cache.tags.indexing_policy
power_model=
power_state=testsys.cpu.itb_walker_cache.tags.power_state
replacement_policy=testsys.cpu.itb_walker_cache.replacement_policy
sequential_access=false
size=1024
system=testsys
tag_latency=2
warmup_percentage=0

[testsys.cpu.itb_walker_cache.tags.indexing_policy]
type=SetAssociative
assoc=2
entry_size=64
eventq_index=0
size=1024

[testsys.cpu.itb_walker_cache.tags.power_state]
type=PowerState
clk_gate_bins=20
clk_gate_max=1000000000000
clk_gate_min=1000
default_state=UNDEFINED
eventq_index=0
leaders=
possible_states=

[testsys.cpu.mmu]
type=X86MMU
children=dtb itb
dtb=testsys.cpu.mmu.dtb
eventq_index=0
itb=testsys.cpu.mmu.itb

[testsys.cpu.mmu.dtb]
type=X86TLB
children=walker
eventq_index=0
size=64
system=testsys
walker=testsys.cpu.mmu.dtb.walker

[testsys.cpu.mmu.dtb.walker]
type=X86PagetableWalker
children=power_state
clk_domain=testsys.cpu_clk_domain
eventq_index=0
num_squash_per_cycle=4
power_model=
power_state=testsys.cpu.mmu.dtb.walker.power_state
system=testsys
port=testsys.cpu.dtb_walker_cache.cpu_side

[testsys.cpu.mmu.dtb.walker.power_state]
type=PowerState
clk_gate_bins=20
clk_gate_max=1000000000000
clk_gate_min=1000
default_state=UNDEFINED
eventq_index=0
leaders=
possible_states=

[testsys.cpu.mmu.itb]
type=X86TLB
children=walker
eventq_index=0
size=64
system=testsys
walker=testsys.cpu.mmu.itb.walker

[testsys.cpu.mmu.itb.walker]
type=X86PagetableWalker
children=power_state
clk_domain=testsys.cpu_clk_domain
eventq_index=0
num_squash_per_cycle=4
power_model=
power_state=testsys.cpu.mmu.itb.walker.power_state
system=testsys
port=testsys.cpu.itb_walker_cache.cpu_side

[testsys.cpu.mmu.itb.walker.power_state]
type=PowerState
clk_gate_bins=20
clk_gate_max=1000000000000
clk_gate_min=1000
default_state=UNDEFINED
eventq_index=0
leaders=
possible_states=

[testsys.cpu.power_state]
type=PowerState
clk_gate_bins=20
clk_gate_max=1000000000000
clk_gate_min=1000
default_state=UNDEFINED
eventq_index=0
leaders=
possible_states=ON CLK_GATED OFF

[testsys.cpu.tracer]
type=ExeTracer
eventq_index=0

[testsys.cpu_clk_domain]
type=SrcClockDomain
clock=333
domain_id=-1
eventq_index=0
init_perf_level=0
voltage_domain=testsys.cpu_voltage_domain

[testsys.cpu_voltage_domain]
type=VoltageDomain
eventq_index=0
voltage=1.0

[testsys.dvfs_handler]
type=DVFSHandler
domains=
enable=false
eventq_index=0
sys_clk_domain=testsys.clk_domain
transition_latency=100000000

[testsys.iobus]
type=NoncoherentXBar
children=power_state
clk_domain=testsys.clk_domain
eventq_index=0
forward_latency=1
frontend_latency=2
header_latency=1
power_model=
power_state=testsys.iobus.power_state
response_latency=2
use_default_range=false
width=16
cpu_side_ports=testsys.bridge.mem_side_port testsys.pc.south_bridge.ide.dma testsys.pc.south_bridge.io_apic.int_requestor testsys.pc.ethernet.dma
default=testsys.pc.default_bus.cpu_side_ports[0]
mem_side_ports=testsys.apicbridge.cpu_side_port testsys.pc.south_bridge.cmos.pio testsys.pc.south_bridge.dma1.pio testsys.pc.south_bridge.ide.pio testsys.pc.south_bridge.keyboard.pio testsys.pc.south_bridge.pic1.pio testsys.pc.south_bridge.pic2.pio testsys.pc.south_bridge.pit.pio testsys.pc.south_bridge.speaker.pio testsys.pc.south_bridge.io_apic.pio testsys.pc.com_1.pio testsys.pc.fake_com_2.pio testsys.pc.fake_com_3.pio testsys.pc.fake_com_4.pio testsys.pc.fake_floppy.pio testsys.pc.pci_host.pio testsys.pc.ethernet.pio testsys.iocache.cpu_side

[testsys.iobus.power_state]
type=PowerState
clk_gate_bins=20
clk_gate_max=1000000000000
clk_gate_min=1000
default_state=UNDEFINED
eventq_index=0
leaders=
possible_states=

[testsys.iocache]
type=Cache
children=power_state replacement_policy tags
addr_ranges=0:536870912
assoc=16
clk_domain=testsys.clk_domain
clusivity=mostly_incl
compressor=Null
data_latency=2
ddio_disabled=false
ddio_enabled=true
ddio_way_part=-1
demand_mshr_reserve=1
eventq_index=0
is_iocache=true
is_llc=false
is_read_only=false
max_miss_count=0
move_contractions=true
mshrs=20
power_model=
power_state=testsys.iocache.power_state
prefetch_on_access=false
prefetch_on_pf_hit=false
prefetcher=Null
replace_expansions=true
replacement_policy=testsys.iocache.replacement_policy
response_latency=2
sequential_access=false
size=32768
system=testsys
tag_latency=2
tags=testsys.iocache.tags
tgts_per_mshr=12
warmup_percentage=0
write_allocator=Null
write_buffers=64
writeback_clean=false
cpu_side=testsys.iobus.mem_side_ports[17]
mem_side=testsys.tol3bus.cpu_side_ports[1]

[testsys.iocache.power_state]
type=PowerState
clk_gate_bins=20
clk_gate_max=1000000000000
clk_gate_min=1000
default_state=UNDEFINED
eventq_index=0
leaders=
possible_states=

[testsys.iocache.replacement_policy]
type=LRURP
eventq_index=0

[testsys.iocache.tags]
type=BaseSetAssoc
children=indexing_policy power_state
assoc=16
block_size=64
clk_domain=testsys.clk_domain
entry_size=64
eventq_index=0
indexing_policy=testsys.iocache.tags.indexing_policy
power_model=
power_state=testsys.iocache.tags.power_state
replacement_policy=testsys.iocache.replacement_policy
sequential_access=false
size=32768
system=testsys
tag_latency=2
warmup_percentage=0

[testsys.iocache.tags.indexing_policy]
type=SetAssociative
assoc=16
entry_size=64
eventq_index=0
size=32768

[testsys.iocache.tags.power_state]
type=PowerState
clk_gate_bins=20
clk_gate_max=1000000000000
clk_gate_min=1000
default_state=UNDEFINED
eventq_index=0
leaders=
possible_states=

[testsys.l2]
type=Cache
children=power_state replacement_policy tags
addr_ranges=0:18446744073709551615
assoc=4
clk_domain=testsys.cpu_clk_domain
clusivity=mostly_incl
compressor=Null
data_latency=3
ddio_disabled=false
ddio_enabled=false
ddio_way_part=-1
demand_mshr_reserve=1
eventq_index=0
is_iocache=false
is_llc=false
is_read_only=false
max_miss_count=0
move_contractions=true
mshrs=20
power_model=
power_state=testsys.l2.power_state
prefetch_on_access=false
prefetch_on_pf_hit=false
prefetcher=Null
replace_expansions=true
replacement_policy=testsys.l2.replacement_policy
response_latency=3
sequential_access=false
size=2097152
system=testsys
tag_latency=3
tags=testsys.l2.tags
tgts_per_mshr=12
warmup_percentage=0
write_allocator=Null
write_buffers=8
writeback_clean=false
cpu_side=testsys.tol2bus.mem_side_ports[0]
mem_side=testsys.tol3bus.cpu_side_ports[0]

[testsys.l2.power_state]
type=PowerState
clk_gate_bins=20
clk_gate_max=1000000000000
clk_gate_min=1000
default_state=UNDEFINED
eventq_index=0
leaders=
possible_states=

[testsys.l2.replacement_policy]
type=LRURP
eventq_index=0

[testsys.l2.tags]
type=BaseSetAssoc
children=indexing_policy power_state
assoc=4
block_size=64
clk_domain=testsys.cpu_clk_domain
entry_size=64
eventq_index=0
indexing_policy=testsys.l2.tags.indexing_policy
power_model=
power_state=testsys.l2.tags.power_state
replacement_policy=testsys.l2.replacement_policy
sequential_access=false
size=2097152
system=testsys
tag_latency=3
warmup_percentage=0

[testsys.l2.tags.indexing_policy]
type=SetAssociative
assoc=4
entry_size=64
eventq_index=0
size=2097152

[testsys.l2.tags.power_state]
type=PowerState
clk_gate_bins=20
clk_gate_max=1000000000000
clk_gate_min=1000
default_state=UNDEFINED
eventq_index=0
leaders=
possible_states=

[testsys.l3]
type=Cache
children=power_state repl_policy replacement_policy tags
addr_ranges=0:18446744073709551615
assoc=16
clk_domain=testsys.cpu_clk_domain
clusivity=mostly_incl
compressor=Null
data_latency=20
ddio_disabled=false
ddio_enabled=true
ddio_way_part=8
demand_mshr_reserve=1
eventq_index=0
is_iocache=false
is_llc=true
is_read_only=false
max_miss_count=0
move_contractions=true
mshrs=32
power_model=
power_state=testsys.l3.power_state
prefetch_on_access=false
prefetch_on_pf_hit=false
prefetcher=Null
replace_expansions=true
replacement_policy=testsys.l3.replacement_policy
response_latency=20
sequential_access=false
size=33554432
system=testsys
tag_latency=20
tags=testsys.l3.tags
tgts_per_mshr=24
warmup_percentage=0
write_allocator=Null
write_buffers=16
writeback_clean=false
cpu_side=testsys.tol3bus.mem_side_ports[0]
mem_side=testsys.membus.cpu_side_ports[2]

[testsys.l3.power_state]
type=PowerState
clk_gate_bins=20
clk_gate_max=1000000000000
clk_gate_min=1000
default_state=UNDEFINED
eventq_index=0
leaders=
possible_states=

[testsys.l3.repl_policy]
type=LRURP
eventq_index=0

[testsys.l3.replacement_policy]
type=LRURP
eventq_index=0

[testsys.l3.tags]
type=BaseSetAssoc
children=indexing_policy power_state
assoc=16
block_size=64
clk_domain=testsys.cpu_clk_domain
entry_size=64
eventq_index=0
indexing_policy=testsys.l3.tags.indexing_policy
power_model=
power_state=testsys.l3.tags.power_state
replacement_policy=testsys.l3.replacement_policy
sequential_access=false
size=33554432
system=testsys
tag_latency=20
warmup_percentage=0

[testsys.l3.tags.indexing_policy]
type=SetAssociative
assoc=16
entry_size=64
eventq_index=0
size=33554432

[testsys.l3.tags.power_state]
type=PowerState
clk_gate_bins=20
clk_gate_max=1000000000000
clk_gate_min=1000
default_state=UNDEFINED
eventq_index=0
leaders=
possible_states=

[testsys.mem_ctrls]
type=MemCtrl
children=dram power_state
clk_domain=testsys.clk_domain
command_window=10000
dram=testsys.mem_ctrls.dram
eventq_index=0
mem_sched_policy=frfcfs
min_writes_per_switch=16
nvm=Null
power_model=
power_state=testsys.mem_ctrls.power_state
qos_policy=Null
qos_priorities=1
qos_priority_escalation=false
qos_q_policy=fifo
qos_requestors=               
qos_syncro_scheduler=false
qos_turnaround_policy=Null
static_backend_latency=10000
static_frontend_latency=10000
system=testsys
write_high_thresh_perc=85
write_low_thresh_perc=50
port=testsys.membus.mem_side_ports[3]

[testsys.mem_ctrls.dram]
type=DRAMInterface
children=power_state
IDD0=0.043000000000000003
IDD02=0.003
IDD2N=0.034
IDD2N2=0.0
IDD2P0=0.0
IDD2P02=0.0
IDD2P1=0.025
IDD2P12=0.0
IDD3N=0.038
IDD3N2=0.003
IDD3P0=0.0
IDD3P02=0.0
IDD3P1=0.032
IDD3P12=0.0
IDD4R=0.11
IDD4R2=0.0
IDD4W=0.10300000000000001
IDD4W2=0.0
IDD5=0.25
IDD52=0.0
IDD6=0.03
IDD62=0.0
VDD=1.2
VDD2=2.5
activation_limit=4
addr_mapping=RoRaBaCoCh
bank_groups_per_rank=4
banks_per_rank=16
beats_per_clock=2
burst_length=8
clk_domain=testsys.clk_domain
conf_table_reported=true
data_clock_sync=false
device_bus_width=4
device_rowbuffer_size=512
device_size=1073741824
devices_per_rank=16
dll=true
enable_dram_powerdown=false
eventq_index=0
image_file=
in_addr_map=true
kvm_map=true
max_accesses_per_row=16
null=false
page_policy=open_adaptive
power_model=
power_state=testsys.mem_ctrls.dram.power_state
range=0:536870912
ranks_per_channel=2
read_buffer_size=64
tAAD=833
tBURST=3332
tBURST_MAX=3332
tBURST_MIN=3332
tCCD_L=5000
tCCD_L_WR=5000
tCK=833
tCL=14160
tCS=1666
tPPD=0
tRAS=32000
tRCD=14160
tREFI=7800000
tRFC=350000
tRP=14160
tRRD=3332
tRRD_L=4900
tRTP=7500
tRTW=1666
tWR=15000
tWTR=5000
tWTR_L=5000
tXAW=13328
tXP=6000
tXPDLL=0
tXS=340000
tXSDLL=0
two_cycle_activate=false
write_buffer_size=128

[testsys.mem_ctrls.dram.power_state]
type=PowerState
clk_gate_bins=20
clk_gate_max=1000000000000
clk_gate_min=1000
default_state=UNDEFINED
eventq_index=0
leaders=
possible_states=

[testsys.mem_ctrls.power_state]
type=PowerState
clk_gate_bins=20
clk_gate_max=1000000000000
clk_gate_min=1000
default_state=UNDEFINED
eventq_index=0
leaders=
possible_states=

[testsys.membus]
type=CoherentXBar
children=badaddr_responder power_state snoop_filter
clk_domain=testsys.clk_domain
eventq_index=0
forward_latency=4
frontend_latency=3
header_latency=1
max_outstanding_snoops=512
max_routing_table_size=512
point_of_coherency=true
point_of_unification=true
power_model=
power_state=testsys.membus.power_state
response_latency=2
snoop_filter=testsys.membus.snoop_filter
snoop_response_latency=4
system=testsys
use_default_range=false
width=16
cpu_side_ports=testsys.apicbridge.mem_side_port testsys.system_port testsys.l3.mem_side testsys.cpu.interrupts.int_requestor
default=testsys.membus.badaddr_responder.pio
mem_side_ports=testsys.bridge.cpu_side_port testsys.cpu.interrupts.pio testsys.cpu.interrupts.int_responder testsys.mem_ctrls.port

[testsys.membus.badaddr_responder]
type=IsaFake
children=power_state
clk_domain=testsys.clk_domain
eventq_index=0
fake_mem=false
pio_addr=0
pio_latency=100000
pio_size=8
power_model=
power_state=testsys.membus.badaddr_responder.power_state
ret_bad_addr=true
ret_data16=65535
ret_data32=4294967295
ret_data64=18446744073709551615
ret_data8=255
system=testsys
update_data=false
warn_access=
pio=testsys.membus.default

[testsys.membus.badaddr_responder.power_state]
type=PowerState
clk_gate_bins=20
clk_gate_max=1000000000000
clk_gate_min=1000
default_state=UNDEFINED
eventq_index=0
leaders=
possible_states=

[testsys.membus.power_state]
type=PowerState
clk_gate_bins=20
clk_gate_max=1000000000000
clk_gate_min=1000
default_state=UNDEFINED
eventq_index=0
leaders=
possible_states=

[testsys.membus.snoop_filter]
type=SnoopFilter
eventq_index=0
lookup_latency=1
max_capacity=8388608
system=testsys

[testsys.pc]
type=Pc
children=bad_addr com_1 default_bus empty_isa ethernet fake_com_2 fake_com_3 fake_com_4 fake_floppy pci_host south_bridge
eventq_index=0
south_bridge=testsys.pc.south_bridge
system=testsys

[testsys.pc.bad_addr]
type=IsaFake
children=power_state
clk_domain=testsys.clk_domain
eventq_index=0
fake_mem=false
pio_addr=0
pio_latency=100000
pio_size=8
power_model=
power_state=testsys.pc.bad_addr.power_state
ret_bad_addr=true
ret_data16=65535
ret_data32=4294967295
ret_data64=18446744073709551615
ret_data8=255
system=testsys
update_data=false
warn_access=
pio=testsys.pc.default_bus.default

[testsys.pc.bad_addr.power_state]
type=PowerState
clk_gate_bins=20
clk_gate_max=1000000000000
clk_gate_min=1000
default_state=UNDEFINED
eventq_index=0
leaders=
possible_states=

[testsys.pc.com_1]
type=Uart8250
children=device power_state
clk_domain=testsys.clk_domain
device=testsys.pc.com_1.device
eventq_index=0
pio_addr=9223372036854776824
pio_latency=100000
pio_size=8
platform=testsys.pc
power_model=
power_state=testsys.pc.com_1.power_state
system=testsys
pio=testsys.iobus.mem_side_ports[10]

[testsys.pc.com_1.device]
type=Terminal
eventq_index=0
number=0
outfile=file
port=3456

[testsys.pc.com_1.power_state]
type=PowerState
clk_gate_bins=20
clk_gate_max=1000000000000
clk_gate_min=1000
default_state=UNDEFINED
eventq_index=0
leaders=
possible_states=

[testsys.pc.default_bus]
type=NoncoherentXBar
children=power_state
clk_domain=testsys.clk_domain
eventq_index=0
forward_latency=1
frontend_latency=2
header_latency=1
power_model=
power_state=testsys.pc.default_bus.power_state
response_latency=2
use_default_range=false
width=16
cpu_side_ports=testsys.iobus.default
default=testsys.pc.bad_addr.pio
mem_side_ports=testsys.pc.empty_isa.pio

[testsys.pc.default_bus.power_state]
type=PowerState
clk_gate_bins=20
clk_gate_max=1000000000000
clk_gate_min=1000
default_state=UNDEFINED
eventq_index=0
leaders=
possible_states=

[testsys.pc.empty_isa]
type=IsaFake
children=power_state
clk_domain=testsys.clk_domain
eventq_index=0
fake_mem=false
pio_addr=9223372036854775808
pio_latency=100000
pio_size=65536
power_model=
power_state=testsys.pc.empty_isa.power_state
ret_bad_addr=false
ret_data16=0
ret_data32=0
ret_data64=0
ret_data8=0
system=testsys
update_data=false
warn_access=
pio=testsys.pc.default_bus.mem_side_ports[0]

[testsys.pc.empty_isa.power_state]
type=PowerState
clk_gate_bins=20
clk_gate_max=1000000000000
clk_gate_min=1000
default_state=UNDEFINED
eventq_index=0
leaders=
possible_states=

[testsys.pc.ethernet]
type=IGbE
children=BAR0 BAR1 BAR2 BAR3 BAR4 BAR5 power_state
BAR0=testsys.pc.ethernet.BAR0
BAR1=testsys.pc.ethernet.BAR1
BAR2=testsys.pc.ethernet.BAR2
BAR3=testsys.pc.ethernet.BAR3
BAR4=testsys.pc.ethernet.BAR4
BAR5=testsys.pc.ethernet.BAR5
BIST=0
CacheLineSize=0
CapabilityPtr=0
CardbusCIS=0
ClassCode=2
Command=0
DeviceID=4213
ExpansionROM=0
HeaderType=0
InterruptLine=1
InterruptPin=1
LatencyTimer=0
MSICAPBaseOffset=0
MSICAPCapId=0
MSICAPMaskBits=0
MSICAPMsgAddr=0
MSICAPMsgCtrl=0
MSICAPMsgData=0
MSICAPMsgUpperAddr=0
MSICAPNextCapability=0
MSICAPPendingBits=0
MSIXCAPBaseOffset=0
MSIXCAPCapId=0
MSIXCAPNextCapability=0
MSIXMsgCtrl=0
MSIXPbaOffset=0
MSIXTableOffset=0
MaximumLatency=0
MinimumGrant=255
PMCAPBaseOffset=0
PMCAPCapId=0
PMCAPCapabilities=0
PMCAPCtrlStatus=0
PMCAPNextCapability=0
PXCAPBaseOffset=0
PXCAPCapId=0
PXCAPCapabilities=0
PXCAPDevCap2=0
PXCAPDevCapabilities=0
PXCAPDevCtrl=0
PXCAPDevCtrl2=0
PXCAPDevStatus=0
PXCAPLinkCap=0
PXCAPLinkCtrl=0
PXCAPLinkStatus=0
PXCAPNextCapability=0
ProgIF=0
Revision=0
Status=0
SubClassCode=0
SubsystemID=4104
SubsystemVendorID=32902
VendorID=32902
clk_domain=testsys.clk_domain
config_latency=20000
eventq_index=0
fetch_comp_delay=10000
fetch_delay=10000
hardware_address=00:90:00:00:00:01
host=testsys.pc.pci_host
pci_bus=0
pci_dev=0
pci_func=0
phy_epid=896
phy_pid=680
pio_latency=30000
power_model=
power_state=testsys.pc.ethernet.power_state
rx_desc_cache_size=64
rx_fifo_size=393216
rx_write_delay=0
sid=0
ssid=0
system=testsys
tx_desc_cache_size=64
tx_fifo_size=393216
tx_read_delay=0
wb_comp_delay=10000
wb_delay=10000
dma=testsys.iobus.cpu_side_ports[3]
interface=etherlink.int0
pio=testsys.iobus.mem_side_ports[16]

[testsys.pc.ethernet.BAR0]
type=PciMemBar
eventq_index=0
size=131072

[testsys.pc.ethernet.BAR1]
type=PciBarNone
eventq_index=0

[testsys.pc.ethernet.BAR2]
type=PciBarNone
eventq_index=0

[testsys.pc.ethernet.BAR3]
type=PciBarNone
eventq_index=0

[testsys.pc.ethernet.BAR4]
type=PciBarNone
eventq_index=0

[testsys.pc.ethernet.BAR5]
type=PciBarNone
eventq_index=0

[testsys.pc.ethernet.power_state]
type=PowerState
clk_gate_bins=20
clk_gate_max=1000000000000
clk_gate_min=1000
default_state=UNDEFINED
eventq_index=0
leaders=
possible_states=

[testsys.pc.fake_com_2]
type=IsaFake
children=power_state
clk_domain=testsys.clk_domain
eventq_index=0
fake_mem=false
pio_addr=9223372036854776568
pio_latency=100000
pio_size=8
power_model=
power_state=testsys.pc.fake_com_2.power_state
ret_bad_addr=false
ret_data16=65535
ret_data32=4294967295
ret_data64=18446744073709551615
ret_data8=255
system=testsys
update_data=false
warn_access=
pio=testsys.iobus.mem_side_ports[11]

[testsys.pc.fake_com_2.power_state]
type=PowerState
clk_gate_bins=20
clk_gate_max=1000000000000
clk_gate_min=1000
default_state=UNDEFINED
eventq_index=0
leaders=
possible_states=

[testsys.pc.fake_com_3]
type=IsaFake
children=power_state
clk_domain=testsys.clk_domain
eventq_index=0
fake_mem=false
pio_addr=9223372036854776808
pio_latency=100000
pio_size=8
power_model=
power_state=testsys.pc.fake_com_3.power_state
ret_bad_addr=false
ret_data16=65535
ret_data32=4294967295
ret_data64=18446744073709551615
ret_data8=255
system=testsys
update_data=false
warn_access=
pio=testsys.iobus.mem_side_ports[12]

[testsys.pc.fake_com_3.power_state]
type=PowerState
clk_gate_bins=20
clk_gate_max=1000000000000
clk_gate_min=1000
default_state=UNDEFINED
eventq_index=0
leaders=
possible_states=

[testsys.pc.fake_com_4]
type=IsaFake
children=power_state
clk_domain=testsys.clk_domain
eventq_index=0
fake_mem=false
pio_addr=9223372036854776552
pio_latency=100000
pio_size=8
power_model=
power_state=testsys.pc.fake_com_4.power_state
ret_bad_addr=false
ret_data16=65535
ret_data32=4294967295